code/testcases/IEEE57bus.RAW
0,   100.00,  32, 0, 1, 60.00     / PSS(R)E 32 RAW created by rawd32  WED, MAY 31 2017  16:11
 08/25/93 UW ARCHIVE           100.0  1961 W IEEE 57 BUS TES

     1,'KANAWHA     ', 138.0000,3,   1,   1,   1,1.04000,   0.0000
     2,'TURNER      ', 138.0000,2,   1,   1,   1,1.01000,  -0.9263
     3,'LOGAN       ', 138.0000,2,   1,   1,   1,0.98500,  -4.8847
     4,'SPRIGG      ', 138.0000,1,   1,   1,   1,0.98445,  -5.6800
     5,'BUS 5       ', 138.0000,1,   1,   1,   1,0.97768,  -7.0604
     6,'BEAVER C    ', 138.0000,2,   1,   1,   1,0.98000,  -7.2744
     7,'BUS 7       ', 138.0000,1,   1,   1,   1,0.97796,  -6.4985
     8,'CLINCH R    ', 138.0000,2,   1,   1,   1,1.00500,  -3.0792
     9,'SALTVILL    ', 138.0000,2,   1,   1,   1,0.98000,  -7.9418
    10,'BUS 10      ', 138.0000,1,   1,   1,   1,0.98510, -10.3663
    11,'TAZEWELL    ', 138.0000,1,   1,   1,   1,0.97935,  -8.3876
    12,'GLEN LYN    ', 138.0000,2,   1,   1,   1,1.01500,  -9.5805
    13,'BUS 13      ', 138.0000,1,   1,   1,   1,0.97737,  -8.7476
    14,'BUS 14      ', 138.0000,1,   1,   1,   1,0.96639,  -8.5081
    15,'BUS 15      ', 138.0000,1,   1,   1,   1,0.98550,  -6.4270
    16,'BUS 16      ', 138.0000,1,   1,   1,   1,1.01394,  -8.2220
    17,'BUS 17      ', 138.0000,1,   1,   1,   1,1.01811,  -5.0647
    19,'BUS 19      ', 138.0000,1,   1,   1,   1,0.91296, -16.8400
    20,'BUS 20      ', 138.0000,1,   1,   1,   1,0.92615, -15.9846
    21,'BUS 21      ', 138.0000,1,   1,   1,   1,0.98172, -13.1051
    22,'BUS 22      ', 138.0000,1,   1,   1,   1,0.98831, -12.8012
    23,'BUS 23      ', 138.0000,1,   1,   1,   1,0.98689, -12.8466
    24,'BUS 24      ', 138.0000,1,   1,   1,   1,0.97797, -12.8305
    25,'BUS 25      ', 138.0000,1,   1,   1,   1,0.92554, -22.1979
    26,'BUS 26      ', 138.0000,1,   1,   1,   1,0.93893, -12.4924
    27,'BUS 27      ', 138.0000,1,   1,   1,   1,0.96554, -10.9979
    28,'BUS 28      ', 138.0000,1,   1,   1,   1,0.98225,  -9.9438
    29,'BUS 29      ', 138.0000,1,   1,   1,   1,0.99684,  -9.2223
    30,'BUS 30      ', 138.0000,1,   1,   1,   1,0.90579, -22.5933
    31,'BUS 31      ', 138.0000,1,   1,   1,   1,0.88050, -22.7731
    32,'BUS 32      ', 138.0000,1,   1,   1,   1,0.90051, -20.9211
    33,'BUS 33      ', 138.0000,1,   1,   1,   1,0.89809, -20.9652
    34,'BUS 34      ', 138.0000,1,   1,   1,   1,0.91171, -15.1545
    35,'BUS 35      ', 138.0000,1,   1,   1,   1,0.91996, -14.8131
    36,'BUS 36      ', 138.0000,1,   1,   1,   1,0.93081, -14.4661
    37,'BUS 37      ', 138.0000,1,   1,   1,   1,0.94485, -14.1068
    38,'BUS 38      ', 138.0000,1,   1,   1,   1,0.99278, -12.6386
    39,'BUS 39      ', 138.0000,1,   1,   1,   1,0.93997, -14.2675
    40,'BUS 40      ', 138.0000,1,   1,   1,   1,0.92314, -14.6671
    42,'BUS 42      ', 138.0000,1,   1,   1,   1,0.84213, -25.2121
    44,'BUS 44      ', 138.0000,1,   1,   1,   1,1.00060, -11.6379
    45,'BUS 45      ', 138.0000,1,   1,   1,   1,1.02843,  -8.8080
    46,'BUS 46      ', 138.0000,1,   1,   1,   1,1.05217, -10.5536
    47,'BUS 47      ', 138.0000,1,   1,   1,   1,1.02113, -12.1741
    48,'BUS 48      ', 138.0000,1,   1,   1,   1,1.01308, -12.3243
    49,'BUS 49      ', 138.0000,1,   1,   1,   1,1.02673, -12.4796
    50,'BUS 50      ', 138.0000,1,   1,   1,   1,1.01655, -12.7727
    51,'BUS 51      ', 138.0000,1,   1,   1,   1,1.05061, -11.5654
    52,'BUS 52      ', 138.0000,1,   1,   1,   1,0.93136, -11.8183
    53,'BUS 53      ', 138.0000,1,   1,   1,   1,0.90390, -13.1082
    54,'BUS 54      ', 138.0000,1,   1,   1,   1,0.89159, -13.5975
    56,'BUS 56      ', 138.0000,1,   1,   1,   1,0.87874, -23.9899
    57,'BUS 57      ', 138.0000,1,   1,   1,   1,0.89042, -23.5462
 0 /End of Bus data, Begin Load data
     1,'1 ',1,   1,   1,    55.000,    17.000,     0.000,     0.000,     0.000,     0.000,   1,1
     2,'1 ',1,   1,   1,     3.000,    88.000,     0.000,     0.000,     0.000,     0.000,   1,1
     3,'1 ',1,   1,   1,    41.000,    21.000,     0.000,     0.000,     0.000,     0.000,   1,1
     5,'1 ',1,   1,   1,    13.000,     4.000,     0.000,     0.000,     0.000,     0.000,   1,1
     6,'1 ',1,   1,   1,    75.000,     2.000,     0.000,     0.000,     0.000,     0.000,   1,1
     8,'1 ',1,   1,   1,   150.000,    22.000,     0.000,     0.000,     0.000,     0.000,   1,1
     9,'1 ',1,   1,   1,   121.000,    26.000,     0.000,     0.000,     0.000,     0.000,   1,1
    10,'1 ',1,   1,   1,     5.000,     2.000,     0.000,     0.000,     0.000,     0.000,   1,1
    12,'1 ',1,   1,   1,   377.000,    24.000,     0.000,     0.000,     0.000,     0.000,   1,1
    13,'1 ',1,   1,   1,    18.000,     2.300,     0.000,     0.000,     0.000,     0.000,   1,1
    14,'1 ',1,   1,   1,    10.500,     5.300,     0.000,     0.000,     0.000,     0.000,   1,1
    15,'1 ',1,   1,   1,    22.000,     5.000,     0.000,     0.000,     0.000,     0.000,   1,1
    16,'1 ',1,   1,   1,    43.000,     3.000,     0.000,     0.000,     0.000,     0.000,   1,1
    17,'1 ',1,   1,   1,    42.000,     8.000,     0.000,     0.000,     0.000,     0.000,   1,1
    19,'1 ',1,   1,   1,     3.300,     0.600,     0.000,     0.000,     0.000,     0.000,   1,1
    20,'1 ',1,   1,   1,     2.300,     1.000,     0.000,     0.000,     0.000,     0.000,   1,1
    23,'1 ',1,   1,   1,     6.300,     2.100,     0.000,     0.000,     0.000,     0.000,   1,1
    25,'1 ',1,   1,   1,     6.300,     3.200,     0.000,     0.000,     0.000,     0.000,   1,1
    27,'1 ',1,   1,   1,     9.300,     0.500,     0.000,     0.000,     0.000,     0.000,   1,1
    28,'1 ',1,   1,   1,     4.600,     2.300,     0.000,     0.000,     0.000,     0.000,   1,1
    29,'1 ',1,   1,   1,    17.000,     2.600,     0.000,     0.000,     0.000,     0.000,   1,1
    30,'1 ',1,   1,   1,     3.600,     1.800,     0.000,     0.000,     0.000,     0.000,   1,1
    31,'1 ',1,   1,   1,     5.800,     2.900,     0.000,     0.000,     0.000,     0.000,   1,1
    32,'1 ',1,   1,   1,     1.600,     0.800,     0.000,     0.000,     0.000,     0.000,   1,1
    33,'1 ',1,   1,   1,     3.800,     1.900,     0.000,     0.000,     0.000,     0.000,   1,1
    35,'1 ',1,   1,   1,     6.000,     3.000,     0.000,     0.000,     0.000,     0.000,   1,1
    38,'1 ',1,   1,   1,    14.000,     7.000,     0.000,     0.000,     0.000,     0.000,   1,1
    42,'1 ',1,   1,   1,     7.100,     4.400,     0.000,     0.000,     0.000,     0.000,   1,1
    44,'1 ',1,   1,   1,    12.000,     1.800,     0.000,     0.000,     0.000,     0.000,   1,1
    47,'1 ',1,   1,   1,    29.700,    11.600,     0.000,     0.000,     0.000,     0.000,   1,1
    49,'1 ',1,   1,   1,    18.000,     8.500,     0.000,     0.000,     0.000,     0.000,   1,1
    50,'1 ',1,   1,   1,    21.000,    10.500,     0.000,     0.000,     0.000,     0.000,   1,1
    51,'1 ',1,   1,   1,    18.000,     5.300,     0.000,     0.000,     0.000,     0.000,   1,1
    52,'1 ',1,   1,   1,     4.900,     2.200,     0.000,     0.000,     0.000,     0.000,   1,1
    53,'1 ',1,   1,   1,    20.000,    10.000,     0.000,     0.000,     0.000,     0.000,   1,1
    54,'1 ',1,   1,   1,     4.100,     1.400,     0.000,     0.000,     0.000,     0.000,   1,1
    56,'1 ',1,   1,   1,     7.600,     2.200,     0.000,     0.000,     0.000,     0.000,   1,1
    57,'1 ',1,   1,   1,     6.700,     2.000,     0.000,     0.000,     0.000,     0.000,   1,1
 0 /End of Load data, Begin Fixed shunt data
    25,' 1',1,     0.000,     5.900
    53,' 1',1,     0.000,     6.300
 0 /End of Fixed shunt data, Begin Generator data
     1,'1 ',   437.200,   137.334,    50.000,   -5.000, 1.04000,     0,   100.000, 0.00000E+0, 1.00000E+0, 0.00000E+0, 0.00000E+0,1.00000,1,  100.0, 10000.000,-10000.000,   1,1.0000
     2,'1 ',     0.000,    -1.535,    50.000,   -17.000,1.01000,     0,   100.000, 0.00000E+0, 1.00000E+0, 0.00000E+0, 0.00000E+0,1.00000,1,  100.0, 10000.000,-10000.000,   1,1.0000
     3,'1 ',    40.000,    -8.261,    60.000,   -10.000,0.98500,     0,   100.000, 0.00000E+0, 1.00000E+0, 0.00000E+0, 0.00000E+0,1.00000,1,  100.0, 10000.000,-10000.000,   1,1.0000
     6,'1 ',     0.000,     3.657,    25.000,    -8.000,0.98000,     0,   100.000, 0.00000E+0, 1.00000E+0, 0.00000E+0, 0.00000E+0,1.00000,1,  100.0, 10000.000,-10000.000,   1,1.0000
     8,'1 ',   450.000,    70.588,   200.000,  -140.000,1.00500,     0,   100.000, 0.00000E+0, 1.00000E+0, 0.00000E+0, 0.00000E+0,1.00000,1,  100.0, 10000.000,-10000.000,   1,1.0000
     9,'1 ',     0.000,   -17.192,     9.000,    -3.000,0.98000,     0,   100.000, 0.00000E+0, 1.00000E+0, 0.00000E+0, 0.00000E+0,1.00000,1,  100.0, 10000.000,-10000.000,   1,1.0000
    12,'1 ',   310.000,   130.918,   155.000,  -150.000,1.01500,     0,   100.000, 0.00000E+0, 1.00000E+0, 0.00000E+0, 0.00000E+0,1.00000,1,  100.0, 10000.000,-10000.000,   1,1.0000
 0 /End of Generator data, Begin Branch data
     1,      2,'1 ', 8.30000E-3, 2.80000E-2,   0.12900,    0.00,    0.00,    0.00,  0.00000,  0.00000,  0.00000,  0.00000,1,1,   0.00,   1,1.0000
     1,     15,'1 ', 1.78000E-2, 9.10000E-2,   0.09880,    0.00,    0.00,    0.00,  0.00000,  0.00000,  0.00000,  0.00000,1,1,   0.00,   1,1.0000
     1,     16,'1 ', 4.54000E-2, 2.06000E-1,   0.05460,    0.00,    0.00,    0.00,  0.00000,  0.00000,  0.00000,  0.00000,1,1,   0.00,   1,1.0000
     1,     17,'1 ', 2.38000E-2, 1.08000E-1,   0.02860,    0.00,    0.00,    0.00,  0.00000,  0.00000,  0.00000,  0.00000,1,1,   0.00,   1,1.0000
     2,      3,'1 ', 2.98000E-2, 8.50000E-2,   0.08180,    0.00,    0.00,    0.00,  0.00000,  0.00000,  0.00000,  0.00000,1,1,   0.00,   1,1.0000
     3,      4,'1 ', 1.12000E-2, 3.66000E-2,   0.03800,    0.00,    0.00,    0.00,  0.00000,  0.00000,  0.00000,  0.00000,1,1,   0.00,   1,1.0000
     3,     15,'1 ', 1.62000E-2, 5.30000E-2,   0.05440,    0.00,    0.00,    0.00,  0.00000,  0.00000,  0.00000,  0.00000,1,1,   0.00,   1,1.0000
     4,      5,'1 ', 6.25000E-2, 1.32000E-1,   0.02580,    0.00,    0.00,    0.00,  0.00000,  0.00000,  0.00000,  0.00000,1,1,   0.00,   1,1.0000
     4,      6,'1 ', 4.30000E-2, 1.48000E-1,   0.03480,    0.00,    0.00,    0.00,  0.00000,  0.00000,  0.00000,  0.00000,1,1,   0.00,   1,1.0000
     5,      6,'1 ', 3.02000E-2, 6.41000E-2,   0.01240,    0.00,    0.00,    0.00,  0.00000,  0.00000,  0.00000,  0.00000,1,1,   0.00,   1,1.0000
     6,      7,'1 ', 2.00000E-2, 1.02000E-1,   0.02760,    0.00,    0.00,    0.00,  0.00000,  0.00000,  0.00000,  0.00000,1,1,   0.00,   1,1.0000
     6,      8,'1 ', 3.39000E-2, 1.73000E-1,   0.04700,    0.00,    0.00,    0.00,  0.00000,  0.00000,  0.00000,  0.00000,1,1,   0.00,   1,1.0000
     7,      8,'1 ', 1.39000E-2, 7.12000E-2,   0.01940,    0.00,    0.00,    0.00,  0.00000,  0.00000,  0.00000,  0.00000,1,1,   0.00,   1,1.0000
     8,      9,'1 ', 9.90000E-3, 5.05000E-2,   0.05480,    0.00,    0.00,    0.00,  0.00000,  0.00000,  0.00000,  0.00000,1,1,   0.00,   1,1.0000
     9,     10,'1 ', 3.69000E-2, 1.67900E-1,   0.04400,    0.00,    0.00,    0.00,  0.00000,  0.00000,  0.00000,  0.00000,1,1,   0.00,   1,1.0000
     9,     11,'1 ', 2.58000E-2, 8.48000E-2,   0.02180,    0.00,    0.00,    0.00,  0.00000,  0.00000,  0.00000,  0.00000,1,1,   0.00,   1,1.0000
     9,     12,'1 ', 6.48000E-2, 2.95000E-1,   0.07720,    0.00,    0.00,    0.00,  0.00000,  0.00000,  0.00000,  0.00000,1,1,   0.00,   1,1.0000
     9,     13,'1 ', 4.81000E-2, 1.58000E-1,   0.04060,    0.00,    0.00,    0.00,  0.00000,  0.00000,  0.00000,  0.00000,1,1,   0.00,   1,1.0000
    10,     12,'1 ', 2.77000E-2, 1.26200E-1,   0.03280,    0.00,    0.00,    0.00,  0.00000,  0.00000,  0.00000,  0.00000,1,1,   0.00,   1,1.0000
    11,     13,'1 ', 2.23000E-2, 7.32000E-2,   0.01880,    0.00,    0.00,    0.00,  0.00000,  0.00000,  0.00000,  0.00000,1,1,   0.00,   1,1.0000
    12,     13,'1 ', 1.78000E-2, 5.80000E-2,   0.06040,    0.00,    0.00,    0.00,  0.00000,  0.00000,  0.00000,  0.00000,1,1,   0.00,   1,1.0000
    12,     16,'1 ', 1.80000E-2, 8.13000E-2,   0.02160,    0.00,    0.00,    0.00,  0.00000,  0.00000,  0.00000,  0.00000,1,1,   0.00,   1,1.0000
    12,     17,'1 ', 3.97000E-2, 1.79000E-1,   0.04760,    0.00,    0.00,    0.00,  0.00000,  0.00000,  0.00000,  0.00000,1,1,   0.00,   1,1.0000
    13,     14,'1 ', 1.32000E-2, 4.34000E-2,   0.01100,    0.00,    0.00,    0.00,  0.00000,  0.00000,  0.00000,  0.00000,1,1,   0.00,   1,1.0000
    13,     15,'1 ', 2.69000E-2, 8.69000E-2,   0.02300,    0.00,    0.00,    0.00,  0.00000,  0.00000,  0.00000,  0.00000,1,1,   0.00,   1,1.0000
    14,     15,'1 ', 1.71000E-2, 5.47000E-2,   0.01480,    0.00,    0.00,    0.00,  0.00000,  0.00000,  0.00000,  0.00000,1,1,   0.00,   1,1.0000
    19,     20,'1 ', 2.83000E-1, 4.34000E-1,   0.00000,    0.00,    0.00,    0.00,  0.00000,  0.00000,  0.00000,  0.00000,1,1,   0.00,   1,1.0000
    21,     22,'1 ', 7.36000E-2, 1.17000E-1,   0.00000,    0.00,    0.00,    0.00,  0.00000,  0.00000,  0.00000,  0.00000,1,1,   0.00,   1,1.0000
    22,     23,'1 ', 9.90000E-3, 1.52000E-2,   0.00000,    0.00,    0.00,    0.00,  0.00000,  0.00000,  0.00000,  0.00000,1,1,   0.00,   1,1.0000
    22,     38,'1 ', 1.92000E-2, 2.95000E-2,   0.00000,    0.00,    0.00,    0.00,  0.00000,  0.00000,  0.00000,  0.00000,1,1,   0.00,   1,1.0000
    23,     24,'1 ', 1.66000E-1, 2.56000E-1,   0.00840,    0.00,    0.00,    0.00,  0.00000,  0.00000,  0.00000,  0.00000,1,1,   0.00,   1,1.0000
    24,     25,'1 ',-0.00000E+0, 1.18200E+0,   0.00000,    0.00,    0.00,    0.00,  0.00000,  0.00000,  0.00000,  0.00000,1,1,   0.00,   1,1.0000
    25,     30,'1 ', 1.35000E-1, 2.02000E-1,   0.00000,    0.00,    0.00,    0.00,  0.00000,  0.00000,  0.00000,  0.00000,1,1,   0.00,   1,1.0000
    26,     27,'1 ', 1.65000E-1, 2.54000E-1,   0.00000,    0.00,    0.00,    0.00,  0.00000,  0.00000,  0.00000,  0.00000,1,1,   0.00,   1,1.0000
    27,     28,'1 ', 6.18000E-2, 9.54000E-2,   0.00000,    0.00,    0.00,    0.00,  0.00000,  0.00000,  0.00000,  0.00000,1,1,   0.00,   1,1.0000
    28,     29,'1 ', 4.18000E-2, 5.87000E-2,   0.00000,    0.00,    0.00,    0.00,  0.00000,  0.00000,  0.00000,  0.00000,1,1,   0.00,   1,1.0000
    29,     52,'1 ', 1.44200E-1, 1.87000E-1,   0.00000,    0.00,    0.00,    0.00,  0.00000,  0.00000,  0.00000,  0.00000,1,1,   0.00,   1,1.0000
    30,     31,'1 ', 3.26000E-1, 4.97000E-1,   0.00000,    0.00,    0.00,    0.00,  0.00000,  0.00000,  0.00000,  0.00000,1,1,   0.00,   1,1.0000
    31,     32,'1 ', 5.07000E-1, 7.55000E-1,   0.00000,    0.00,    0.00,    0.00,  0.00000,  0.00000,  0.00000,  0.00000,1,1,   0.00,   1,1.0000
    32,     33,'1 ', 3.92000E-2, 3.60000E-2,   0.00000,    0.00,    0.00,    0.00,  0.00000,  0.00000,  0.00000,  0.00000,1,1,   0.00,   1,1.0000
    34,     35,'1 ', 5.20000E-2, 7.80000E-2,   0.00320,    0.00,    0.00,    0.00,  0.00000,  0.00000,  0.00000,  0.00000,1,1,   0.00,   1,1.0000
    35,     36,'1 ', 4.30000E-2, 5.37000E-2,   0.00160,    0.00,    0.00,    0.00,  0.00000,  0.00000,  0.00000,  0.00000,1,1,   0.00,   1,1.0000
    36,     37,'1 ', 2.90000E-2, 3.66000E-2,   0.00000,    0.00,    0.00,    0.00,  0.00000,  0.00000,  0.00000,  0.00000,1,1,   0.00,   1,1.0000
    36,     40,'1 ', 3.00000E-2, 4.66000E-2,   0.00000,    0.00,    0.00,    0.00,  0.00000,  0.00000,  0.00000,  0.00000,1,1,   0.00,   1,1.0000
    37,     38,'1 ', 6.51000E-2, 1.00900E-1,   0.00200,    0.00,    0.00,    0.00,  0.00000,  0.00000,  0.00000,  0.00000,1,1,   0.00,   1,1.0000
    37,     39,'1 ', 2.39000E-2, 3.79000E-2,   0.00000,    0.00,    0.00,    0.00,  0.00000,  0.00000,  0.00000,  0.00000,1,1,   0.00,   1,1.0000
    38,     44,'1 ', 2.89000E-2, 5.85000E-2,   0.00200,    0.00,    0.00,    0.00,  0.00000,  0.00000,  0.00000,  0.00000,1,1,   0.00,   1,1.0000
    38,     48,'1 ', 3.12000E-2, 4.82000E-2,   0.00000,    0.00,    0.00,    0.00,  0.00000,  0.00000,  0.00000,  0.00000,1,1,   0.00,   1,1.0000
    38,     49,'1 ', 1.15000E-1, 1.77000E-1,   0.00300,    0.00,    0.00,    0.00,  0.00000,  0.00000,  0.00000,  0.00000,1,1,   0.00,   1,1.0000
    42,     56,'1 ', 2.12500E-1, 3.54000E-1,   0.00000,    0.00,    0.00,    0.00,  0.00000,  0.00000,  0.00000,  0.00000,1,2,   0.00,   1,1.0000
    44,     45,'1 ', 6.24000E-2, 1.24200E-1,   0.00400,    0.00,    0.00,    0.00,  0.00000,  0.00000,  0.00000,  0.00000,1,1,   0.00,   1,1.0000
    46,     47,'1 ', 2.30000E-2, 6.80000E-2,   0.00320,    0.00,    0.00,    0.00,  0.00000,  0.00000,  0.00000,  0.00000,1,1,   0.00,   1,1.0000
    47,     48,'1 ', 1.82000E-2, 2.33000E-2,   0.00000,    0.00,    0.00,    0.00,  0.00000,  0.00000,  0.00000,  0.00000,1,1,   0.00,   1,1.0000
    48,     49,'1 ', 8.34000E-2, 1.29000E-1,   0.00480,    0.00,    0.00,    0.00,  0.00000,  0.00000,  0.00000,  0.00000,1,1,   0.00,   1,1.0000
    49,     50,'1 ', 8.01000E-2, 1.28000E-1,   0.00000,    0.00,    0.00,    0.00,  0.00000,  0.00000,  0.00000,  0.00000,1,1,   0.00,   1,1.0000
    50,     51,'1 ', 1.38600E-1, 2.20000E-1,   0.00000,    0.00,    0.00,    0.00,  0.00000,  0.00000,  0.00000,  0.00000,1,1,   0.00,   1,1.0000
    52,     53,'1 ', 7.62000E-2, 9.84000E-2,   0.00000,    0.00,    0.00,    0.00,  0.00000,  0.00000,  0.00000,  0.00000,1,1,   0.00,   1,1.0000
    53,     54,'1 ', 1.87800E-1, 2.32000E-1,   0.00000,    0.00,    0.00,    0.00,  0.00000,  0.00000,  0.00000,  0.00000,1,1,   0.00,   1,1.0000
    56,     57,'1 ', 1.74000E-1, 2.60000E-1,   0.00000,    0.00,    0.00,    0.00,  0.00000,  0.00000,  0.00000,  0.00000,1,2,   0.00,   1,1.0000
 0 /End of Branch data, Begin Transformer data
     7,    29,     0,'1 ',1,1,1, 0.00000E+0, 0.00000E+0,2,'                                        ',1,   1,1.0000
 0.00000E+0, 6.48000E-2,   100.00
0.96700,   0.000,   0.000,     0.00,     0.00,     0.00, 0,      0, 1.50000, 0.51000, 1.50000, 0.51000, 159, 0, 0.00000, 0.00000,  0.000
1.00000,   0.000
    10,    51,     0,'1 ',1,1,1, 0.00000E+0, 0.00000E+0,2,'                                        ',1,   1,1.0000
 0.00000E+0, 7.12000E-2,   100.00
0.93000,   0.000,   0.000,     0.00,     0.00,     0.00, 0,      0, 1.50000, 0.51000, 1.50000, 0.51000, 159, 0, 0.00000, 0.00000,  0.000
1.00000,   0.000
    13,    49,     0,'1 ',1,1,1, 0.00000E+0, 0.00000E+0,2,'                                        ',1,   1,1.0000
 0.00000E+0, 1.91000E-1,   100.00
0.89500,   0.000,   0.000,     0.00,     0.00,     0.00, 0,      0, 1.50000, 0.51000, 1.50000, 0.51000, 159, 0, 0.00000, 0.00000,  0.000
1.00000,   0.000
    14,    46,     0,'1 ',1,1,1, 0.00000E+0, 0.00000E+0,2,'                                        ',1,   1,1.0000
 0.00000E+0, 7.35000E-2,   100.00
0.90000,   0.000,   0.000,     0.00,     0.00,     0.00, 0,      0, 1.50000, 0.51000, 1.50000, 0.51000, 159, 0, 0.00000, 0.00000,  0.000
1.00000,   0.000
    15,    45,     0,'1 ',1,1,1, 0.00000E+0, 0.00000E+0,2,'                                        ',1,   1,1.0000
 0.00000E+0, 1.04200E-1,   100.00
0.95500,   0.000,   0.000,     0.00,     0.00,     0.00, 0,      0, 1.50000, 0.51000, 1.50000, 0.51000, 159, 0, 0.00000, 0.00000,  0.000
1.00000,   0.000
    21,    20,     0,'1 ',1,1,1, 0.00000E+0, 0.00000E+0,2,'                                        ',1,   1,1.0000
 0.00000E+0, 7.76700E-1,   100.00
1.04300,   0.000,   0.000,     0.00,     0.00,     0.00, 0,      0, 1.50000, 0.51000, 1.50000, 0.51000, 159, 0, 0.00000, 0.00000,  0.000
1.00000,   0.000
    24,    26,     0,'1 ',1,1,1, 0.00000E+0, 0.00000E+0,2,'                                        ',1,   1,1.0000
 0.00000E+0, 4.73000E-2,   100.00
1.04300,   0.000,   0.000,     0.00,     0.00,     0.00, 0,      0, 1.50000, 0.51000, 1.50000, 0.51000, 159, 0, 0.00000, 0.00000,  0.000
1.00000,   0.000
    34,    32,     0,'1 ',1,1,1, 0.00000E+0, 0.00000E+0,2,'                                        ',1,   1,1.0000
 0.00000E+0, 9.53000E-1,   100.00
0.97500,   0.000,   0.000,     0.00,     0.00,     0.00, 0,      0, 1.50000, 0.51000, 1.50000, 0.51000, 159, 0, 0.00000, 0.00000,  0.000
1.00000,   0.000
    39,    57,     0,'1 ',1,1,1, 0.00000E+0, 0.00000E+0,2,'                                        ',1,   1,1.0000
 0.00000E+0, 1.35500E+0,   100.00
0.98000,   0.000,   0.000,     0.00,     0.00,     0.00, 0,      0, 1.50000, 0.51000, 1.50000, 0.51000, 159, 0, 0.00000, 0.00000,  0.000
1.00000,   0.000
    40,    56,     0,'1 ',1,1,1, 0.00000E+0, 0.00000E+0,2,'                                        ',1,   1,1.0000
 0.00000E+0, 1.19500E+0,   100.00
0.95800,   0.000,   0.000,     0.00,     0.00,     0.00, 0,      0, 1.50000, 0.51000, 1.50000, 0.51000, 159, 0, 0.00000, 0.00000,  0.000
1.00000,   0.000
 0 /End of Transformer data, Begin Area interchange data
   1,     0,     0.000,     1.000,'1           '
 0 /End of Area interchange data, Begin Two-terminal dc line data
 0 /End of Two-terminal dc line data, Begin VSC dc line data
 0 /End of VSC dc line data, Begin Impedance correction table data
 0 /End of Impedance correction table data, Begin Multi-terminal dc line data
 0 /End of Multi-terminal dc line data, Begin Multi-section line data
 0 /End of Multi-section line data, Begin Zone data
   1,'IEEE 57     '
 0 /End of Zone data, Begin Inter-area transfer data
 0 /End of Inter-area transfer data, Begin Owner data
   1,'1           '
 0 /End of Owner data, Begin FACTS device data
 0 /End of FACTS device data, Begin Switched shunt data
 0 /End of Switched shunt data, Begin GNE device data
 0 /End of GNE device data
Q
